
This summary file was generated by TurbSim (v2.00.07a-bjj, 14-Jun-2016) on 20-May-2025 at 22:00:30.


Runtime Options:

   2318573  Random seed #1
   2357364  Random seed #2
         F  Output binary HH turbulence parameters?
         F  Output formatted turbulence parameters?
         F  Output AeroDyn HH files?
         T  Output AeroDyn FF files?
         F  Output BLADED FF files?
         F  Output tower data?
         F  Output formatted FF files?
         F  Output coherent turbulence time step file?
         T  Clockwise rotation when looking downwind?
 0 -  NONE  IEC turbulence models scaled to exact specified standard deviation


Turbine/Model Specifications:

        30  Vertical grid-point matrix dimension
        30  Horizontal grid-point matrix dimension
     0.100  Time step [seconds]
   700.000  Analysis time [seconds]
   700.000  Usable output time [seconds]
   115.630  Hub height [m]
   220.000  Grid height [m]
   220.000  Grid width [m]
     0.000  Vertical flow angle [degrees]
     0.000  Horizontal flow angle [degrees]


Meteorological Boundary Conditions:

    SMOOTH  RISO Smooth Terrain spectral model
       N/A  IEC standard
       N/A  IEC turbulence characteristic
       N/A  IEC turbulence type
       N/A  IEC Extreme Turbulence Model (ETM) "c" parameter [m/s]
       PL   Wind profile type
   115.630  Reference height [m]
    10.000  Reference wind speed [m/s]
       N/A  Jet height [m]
     0.200  Power law exponent
     0.010  Surface roughness length [m]


Non-IEC Meteorological Boundary Conditions:

    45.000  Site latitude [degrees]
     0.050  Gradient Richardson number
     0.413  Friction or shear velocity [m/s]
       N/A  Mixing layer depth [m]
    -0.170  Mean hub u'w' Reynolds stress
       N/A  Mean hub u'v' Reynolds stress
       N/A  Mean hub v'w' Reynolds stress


Spatial Coherence Models:

   GENERAL  u-component coherence model
   GENERAL  v-component coherence model
   GENERAL  w-component coherence model
(   10.000,  0.00    )  u-component coherence parameters
(    7.500,  0.00    )  v-component coherence parameters
(    7.500,  0.00    )  w-component coherence parameters
     0.000  Coherence exponent


You have requested that the following file(s) be generated:

   TurbSim.bts (AeroDyn/TurbSim full-field wind file)


Turbulence Simulation Scaling Parameter Summary:

   Turbulence model used                            =  RISO Smooth Terrain
   Gradient Richardson number                       =    0.050
   Monin-Obukhov (M-O) z/L parameter                =    0.067
   Monin-Obukhov (M-O) length scale                 = 1734.450 m
   Mean wind speed at hub height                    =   10.000 m/s

   Wind profile type                                =  Power law
   Power law exponent                               =    0.200
   Mean shear across rotor disk                     =    0.027 (m/s)/m
   Assumed rotor diameter                           =  220.000 m
   Surface roughness length                         =    0.010 m

   Nyquist frequency of turbulent wind field        =    5.000 Hz

   Number of time steps in the FFT                  =     7000
   Number of time steps output                      =     7000
   Number of points simulated                       =      901


Mean Flow Angles:

   Vertical   =   0.0 degrees
   Horizontal =   0.0 degrees

Mean Wind Speed Profile:

   Height    Wind Speed   Horizontal Angle  Vertical Angle  U-comp (X)   V-comp (Y)   W-comp (Z)
     (m)        (m/s)         (degrees)       (degrees)       (m/s)        (m/s)        (m/s)   
   ------    ----------   ----------------  --------------  ----------   ----------   ----------
    225.6       11.43            0.00            0.00         11.43         0.00         0.00
    218.0       11.35            0.00            0.00         11.35         0.00         0.00
    210.5       11.27            0.00            0.00         11.27         0.00         0.00
    202.9       11.19            0.00            0.00         11.19         0.00         0.00
    195.3       11.11            0.00            0.00         11.11         0.00         0.00
    187.7       11.02            0.00            0.00         11.02         0.00         0.00
    180.1       10.93            0.00            0.00         10.93         0.00         0.00
    172.5       10.83            0.00            0.00         10.83         0.00         0.00
    164.9       10.74            0.00            0.00         10.74         0.00         0.00
    157.4       10.64            0.00            0.00         10.64         0.00         0.00
    149.8       10.53            0.00            0.00         10.53         0.00         0.00
    142.2       10.42            0.00            0.00         10.42         0.00         0.00
    134.6       10.31            0.00            0.00         10.31         0.00         0.00
    127.0       10.19            0.00            0.00         10.19         0.00         0.00
    119.4       10.06            0.00            0.00         10.06         0.00         0.00
    115.6       10.00            0.00            0.00         10.00         0.00         0.00
    111.8        9.93            0.00            0.00          9.93         0.00         0.00
    104.3        9.79            0.00            0.00          9.79         0.00         0.00
     96.7        9.65            0.00            0.00          9.65         0.00         0.00
     89.1        9.49            0.00            0.00          9.49         0.00         0.00
     81.5        9.32            0.00            0.00          9.32         0.00         0.00
     73.9        9.14            0.00            0.00          9.14         0.00         0.00
     66.3        8.95            0.00            0.00          8.95         0.00         0.00
     58.7        8.73            0.00            0.00          8.73         0.00         0.00
     51.1        8.49            0.00            0.00          8.49         0.00         0.00
     43.6        8.23            0.00            0.00          8.23         0.00         0.00
     36.0        7.92            0.00            0.00          7.92         0.00         0.00
     28.4        7.55            0.00            0.00          7.55         0.00         0.00
     20.8        7.10            0.00            0.00          7.10         0.00         0.00
     13.2        6.48            0.00            0.00          6.48         0.00         0.00
      5.6        5.46            0.00            0.00          5.46         0.00         0.00


Harvested Random Seeds after Generation of the Random Numbers:

   1644742616 Harvested seed # 1
   1505204591 Harvested seed # 2


Scaling statistics from the hub grid point:

   Cross-Component  Scaling Factor
   ---------------  --------------
   u'w'               -0.21375E+00
   u'v'                0.00000E+00
   v'w'                0.00000E+00


Hub-Height Simulated Turbulence Statistical Summary:

   Type of Wind        Min (m/s)   Mean (m/s)    Max (m/s)  Sigma (m/s)       TI (%)
   ----------------    ---------   ----------    ---------  -----------       ------
   Longitudinal (u)         7.05        10.00        12.95        0.917        9.172
   Lateral (v)             -2.15         0.00         2.21        0.742        7.419
   Vertical (w)            -2.14         0.00         3.00        0.635        6.345
   U component              7.05        10.00        12.95        0.917        9.172
   V component             -2.15         0.00         2.21        0.742        7.419
   W component             -2.14         0.00         3.00        0.635        6.345
   Horizontal (U&V)         7.07        10.03        12.97        0.918        9.155
   Total                    7.09        10.05        12.97        0.916        9.116

                       Min Reynolds     Mean Reynolds    Max Reynolds    Correlation
   Product             Stress (m/s)^2   Stress (m/s)^2   Stress (m/s)^2  Coefficient
   ----------------    --------------   --------------   --------------  -----------
   u'w'                     -6.197            -0.170             2.497        -0.293
   u'v'                     -4.005             0.009             3.476         0.013
   v'w'                     -2.625            -0.015             3.389        -0.032


   Friction Velocity (Ustar)  =      0.413 m/s
   Maximum Instantaneous TKE  =      6.880 (m/s)^2
   Maximum Instantaneous CTKE =      3.359 (m/s)^2


Grid Point Variance Summary:

   Y-coord -110.00 -102.41  -94.83  -87.24  -79.66  -72.07  -64.48  -56.90  -49.31  -41.72  -34.14  -26.55  -18.97  -11.38   -3.79    3.79   11.38   18.97   26.55   34.14   41.72   49.31   56.90   64.48   72.07   79.66   87.24   94.83  102.41  110.00

   Height   Standard deviation at grid points for the u component:
   225.63    0.900   0.993   1.068   1.009   0.968   0.956   0.939   0.918   0.951   0.962   0.930   0.957   0.938   0.953   0.935   0.908   0.864   0.870   0.921   0.962   0.973   0.990   0.980   0.909   0.860   0.884   0.917   0.911   0.881   0.896
   218.04    0.892   1.002   0.970   0.987   0.964   0.974   0.977   0.977   0.975   0.993   0.921   1.028   1.011   0.954   0.939   0.900   0.925   0.929   0.903   0.923   0.945   0.951   0.903   0.908   0.854   0.914   0.920   0.917   0.893   0.853
   210.46    0.891   0.991   0.966   0.987   0.952   0.956   0.946   0.932   0.911   0.913   0.967   1.014   0.985   0.959   0.936   0.905   0.926   0.939   0.915   0.866   0.907   0.923   0.861   0.865   0.871   0.970   0.895   0.908   0.872   0.862
   202.87    0.879   0.954   0.979   1.003   0.931   0.954   0.918   0.913   0.912   0.915   0.957   0.987   0.953   0.957   0.953   0.924   0.949   0.941   0.903   0.845   0.818   0.842   0.886   0.818   0.853   0.911   0.879   0.855   0.820   0.810
   195.29    0.927   0.951   0.972   0.980   1.012   1.040   0.905   0.895   0.967   0.912   0.919   0.910   0.990   0.997   0.929   0.931   0.935   0.897   0.883   0.903   0.843   0.815   0.798   0.803   0.818   0.833   0.839   0.842   0.814   0.814
   187.70    0.940   0.970   0.969   0.960   0.971   1.015   1.012   0.973   0.933   0.953   0.944   0.937   0.956   0.987   0.899   0.936   0.870   0.934   0.910   0.921   0.846   0.835   0.830   0.844   0.798   0.846   0.822   0.822   0.805   0.798
   180.11    0.943   0.954   0.864   0.936   0.963   0.938   1.050   1.054   0.983   0.946   0.976   0.928   0.969   0.931   0.906   0.873   0.857   0.901   0.926   0.862   0.884   0.835   0.796   0.800   0.802   0.823   0.829   0.857   0.831   0.841
   172.53    0.936   0.931   0.896   0.866   0.951   0.984   0.989   0.999   0.981   1.015   1.003   1.001   0.964   0.934   0.857   0.901   0.823   0.898   0.861   0.882   0.917   0.840   0.844   0.795   0.825   0.815   0.811   0.846   0.877   0.880
   164.94    0.992   0.922   0.917   0.909   0.964   0.950   0.963   0.962   0.905   0.943   0.940   0.971   0.984   0.864   0.839   0.911   0.872   0.870   0.917   0.920   0.890   0.843   0.856   0.819   0.765   0.806   0.837   0.830   0.873   0.838
   157.35    0.970   0.898   0.954   0.972   0.944   0.971   0.909   0.873   0.853   0.872   0.911   0.938   0.938   0.876   0.840   0.873   0.866   0.891   0.931   0.838   0.893   0.838   0.887   0.836   0.824   0.815   0.879   0.878   0.897   0.896
   149.77    0.944   0.903   0.944   0.976   1.024   0.957   0.922   0.880   0.850   0.846   0.905   0.944   0.911   0.862   0.890   0.860   0.869   0.877   0.882   0.853   0.845   0.897   0.889   0.890   0.831   0.862   0.938   0.959   1.006   0.999
   142.18    0.899   0.912   0.915   0.924   0.973   0.959   0.917   0.830   0.876   0.897   0.912   0.926   0.934   0.872   0.813   0.846   0.872   0.889   0.784   0.832   0.888   0.856   0.878   0.933   0.876   0.875   1.006   0.957   1.040   1.066
   134.60    0.912   0.920   0.956   0.961   0.972   0.948   0.898   0.821   0.855   0.869   0.927   0.969   0.914   0.896   0.849   0.904   0.884   0.929   0.906   0.826   0.862   0.911   0.889   0.908   0.896   0.976   1.029   0.988   1.023   1.041
   127.01    0.881   0.852   0.894   0.901   0.939   0.864   0.896   0.891   0.850   0.928   0.931   0.974   0.921   0.883   0.832   0.861   0.932   0.970   0.947   0.887   0.915   0.951   0.907   0.903   0.949   0.974   1.010   1.042   1.062   1.037
   119.42    0.858   0.885   0.900   0.891   0.945   0.878   0.928   0.874   0.934   0.951   1.004   0.994   0.942   0.912   0.866   0.963   0.933   0.923   0.938   0.982   0.938   0.973   0.969   0.959   0.952   0.970   1.033   1.077   1.083   1.048
   111.84    0.846   0.908   0.895   0.900   0.909   0.935   0.951   0.996   0.958   1.021   1.025   0.973   0.994   0.930   0.894   0.920   0.951   0.926   0.942   0.967   0.939   0.959   0.946   0.961   0.950   0.992   1.005   1.030   1.000   0.995
   104.25    0.888   0.932   0.960   0.931   0.964   0.963   0.986   1.045   1.030   1.013   0.979   0.992   0.971   0.992   0.919   0.945   0.978   0.958   1.003   0.995   1.019   1.036   0.998   0.990   0.942   0.984   1.018   0.954   1.025   0.996
    96.66    0.853   0.908   0.911   0.950   0.989   0.974   0.966   0.997   0.987   0.957   0.990   0.926   0.951   0.888   0.934   0.932   0.939   0.989   1.017   1.001   1.087   1.011   1.012   0.971   0.988   0.971   0.949   0.999   1.031   0.998
    89.08    0.873   0.858   0.837   0.960   0.949   1.028   0.973   0.967   1.010   0.997   1.002   0.883   0.918   0.932   0.905   0.931   0.932   0.957   0.921   0.947   1.002   0.980   1.008   0.974   1.002   0.963   0.978   1.025   1.066   1.055
    81.49    0.935   0.885   0.863   0.929   0.962   0.986   0.978   1.000   0.997   0.953   0.977   0.937   0.891   0.920   0.966   1.032   0.974   0.988   0.940   0.933   0.939   1.018   0.969   1.007   1.009   0.968   0.934   0.970   1.035   1.061
    73.91    0.890   0.909   0.912   0.985   0.945   0.942   0.988   0.971   0.881   0.940   0.963   0.908   0.962   0.955   0.985   1.002   0.913   0.949   0.979   0.966   0.947   0.992   0.973   1.054   1.016   0.996   0.963   0.972   1.027   1.050
    66.32    0.908   0.885   0.922   0.923   0.908   0.881   0.940   1.011   0.972   0.867   0.937   1.024   0.997   1.004   0.995   0.973   0.913   0.925   0.976   0.994   0.991   0.998   1.000   1.032   1.032   1.000   0.979   0.982   1.041   1.105
    58.73    0.909   0.875   0.900   0.876   0.895   0.855   0.856   0.937   0.923   0.854   0.891   0.985   0.999   1.025   0.989   0.942   1.001   0.945   0.956   0.991   1.031   1.029   0.990   1.044   1.031   1.028   0.973   0.999   1.048   1.066
    51.15    0.928   0.928   0.931   0.870   0.892   0.869   0.895   0.912   0.843   0.826   0.872   0.958   0.924   0.953   0.947   0.953   0.982   1.018   1.017   1.036   1.045   1.073   1.034   1.097   1.011   1.011   1.054   1.089   1.101   1.010
    43.56    0.890   0.882   0.941   0.941   0.935   0.889   0.913   0.981   0.937   0.897   0.885   0.936   0.926   0.942   0.975   0.912   0.947   1.081   1.098   1.090   1.028   1.076   1.133   1.106   1.108   1.111   1.104   1.060   1.093   1.060
    35.97    0.917   0.972   0.949   0.967   0.961   0.972   0.952   0.961   0.924   0.923   0.926   0.917   0.914   0.961   0.939   0.991   1.045   1.109   1.113   1.094   1.082   1.106   1.140   1.128   1.119   1.078   1.081   1.062   1.056   1.067
    28.39    0.971   1.046   1.024   1.025   0.967   0.996   0.947   0.916   0.964   0.973   0.967   0.932   0.893   0.952   0.965   0.986   1.008   1.090   1.087   1.111   1.041   1.113   1.176   1.227   1.192   1.120   1.122   1.064   1.064   1.076
    20.80    1.050   1.028   1.065   1.039   0.984   1.031   0.961   0.935   1.004   0.988   0.930   0.946   0.969   0.936   1.003   1.068   1.103   1.082   1.123   1.149   1.063   1.076   1.106   1.164   1.195   1.195   1.124   1.157   1.128   1.051
    13.22    1.038   1.056   1.011   0.995   1.037   1.061   1.059   0.997   1.047   1.036   1.030   1.024   1.030   0.916   0.982   1.051   1.113   1.167   1.149   1.159   1.099   1.018   1.079   1.132   1.153   1.105   1.123   1.093   1.141   1.068
     5.63    1.061   1.035   1.086   1.088   1.068   1.053   1.043   1.058   1.071   1.094   1.053   1.055   1.054   1.031   1.044   1.079   1.117   1.100   1.115   1.083   1.124   1.093   1.071   1.103   1.119   1.099   1.115   1.117   1.122   1.121

   Height   Standard deviation at grid points for the v component:
   225.63    0.807   0.744   0.749   0.746   0.675   0.715   0.711   0.699   0.728   0.732   0.802   0.760   0.737   0.758   0.779   0.753   0.689   0.707   0.691   0.676   0.669   0.707   0.714   0.690   0.688   0.667   0.680   0.664   0.667   0.685
   218.04    0.792   0.772   0.751   0.728   0.733   0.731   0.710   0.690   0.708   0.723   0.760   0.737   0.718   0.716   0.723   0.743   0.727   0.701   0.698   0.692   0.685   0.754   0.744   0.689   0.684   0.663   0.691   0.655   0.668   0.663
   210.46    0.759   0.769   0.760   0.740   0.719   0.726   0.729   0.696   0.682   0.730   0.731   0.711   0.696   0.697   0.733   0.743   0.726   0.735   0.710   0.676   0.713   0.753   0.726   0.692   0.697   0.667   0.669   0.712   0.663   0.692
   202.87    0.756   0.759   0.770   0.799   0.776   0.753   0.721   0.683   0.696   0.720   0.705   0.705   0.673   0.692   0.763   0.761   0.756   0.751   0.726   0.723   0.741   0.768   0.780   0.755   0.747   0.719   0.703   0.723   0.728   0.708
   195.29    0.719   0.727   0.786   0.794   0.768   0.773   0.715   0.690   0.701   0.692   0.712   0.694   0.658   0.655   0.733   0.723   0.742   0.742   0.723   0.771   0.763   0.771   0.776   0.784   0.729   0.738   0.755   0.749   0.742   0.755
   187.70    0.751   0.761   0.738   0.766   0.720   0.717   0.702   0.688   0.692   0.714   0.720   0.687   0.696   0.675   0.709   0.685   0.713   0.736   0.765   0.752   0.774   0.790   0.778   0.806   0.776   0.781   0.750   0.763   0.759   0.792
   180.11    0.776   0.722   0.724   0.692   0.679   0.687   0.674   0.681   0.677   0.681   0.675   0.667   0.694   0.707   0.689   0.695   0.743   0.728   0.750   0.748   0.769   0.763   0.786   0.817   0.814   0.788   0.734   0.768   0.769   0.755
   172.53    0.764   0.726   0.722   0.734   0.712   0.691   0.638   0.657   0.647   0.661   0.660   0.649   0.681   0.678   0.698   0.723   0.755   0.726   0.740   0.732   0.787   0.799   0.814   0.816   0.791   0.786   0.780   0.768   0.735   0.726
   164.94    0.706   0.709   0.780   0.751   0.686   0.686   0.616   0.630   0.647   0.647   0.645   0.671   0.670   0.663   0.666   0.694   0.724   0.682   0.698   0.710   0.739   0.785   0.776   0.807   0.771   0.743   0.766   0.751   0.730   0.710
   157.35    0.720   0.716   0.754   0.761   0.693   0.660   0.605   0.661   0.655   0.622   0.619   0.647   0.643   0.643   0.653   0.699   0.734   0.713   0.731   0.716   0.754   0.784   0.803   0.801   0.765   0.730   0.744   0.740   0.746   0.682
   149.77    0.723   0.779   0.736   0.747   0.671   0.673   0.652   0.694   0.680   0.688   0.626   0.642   0.643   0.672   0.669   0.730   0.739   0.737   0.740   0.736   0.758   0.769   0.798   0.766   0.742   0.697   0.715   0.751   0.743   0.713
   142.18    0.747   0.776   0.750   0.736   0.709   0.673   0.688   0.713   0.724   0.671   0.656   0.615   0.686   0.696   0.727   0.737   0.742   0.727   0.710   0.745   0.769   0.749   0.741   0.753   0.786   0.745   0.697   0.716   0.717   0.689
   134.60    0.737   0.768   0.782   0.778   0.734   0.701   0.685   0.712   0.715   0.710   0.681   0.703   0.702   0.667   0.720   0.728   0.751   0.735   0.722   0.771   0.771   0.724   0.706   0.724   0.746   0.772   0.719   0.712   0.694   0.713
   127.01    0.732   0.721   0.748   0.746   0.738   0.706   0.685   0.705   0.722   0.667   0.718   0.718   0.701   0.678   0.730   0.706   0.725   0.715   0.765   0.760   0.764   0.726   0.722   0.692   0.752   0.744   0.736   0.686   0.716   0.735
   119.42    0.698   0.695   0.732   0.765   0.736   0.692   0.720   0.721   0.711   0.671   0.703   0.705   0.710   0.715   0.726   0.708   0.753   0.792   0.798   0.802   0.796   0.761   0.766   0.730   0.752   0.779   0.739   0.748   0.758   0.787
   111.84    0.727   0.715   0.779   0.736   0.704   0.739   0.735   0.718   0.712   0.686   0.707   0.669   0.700   0.731   0.744   0.741   0.757   0.759   0.805   0.762   0.798   0.790   0.755   0.753   0.747   0.721   0.741   0.773   0.787   0.822
   104.25    0.771   0.774   0.778   0.724   0.714   0.722   0.716   0.688   0.708   0.710   0.694   0.674   0.702   0.729   0.737   0.757   0.751   0.737   0.780   0.779   0.769   0.762   0.762   0.751   0.779   0.780   0.773   0.752   0.803   0.823
    96.66    0.793   0.776   0.772   0.723   0.722   0.738   0.773   0.713   0.695   0.667   0.697   0.711   0.693   0.737   0.711   0.727   0.725   0.737   0.743   0.744   0.762   0.768   0.781   0.795   0.786   0.805   0.799   0.762   0.787   0.817
    89.08    0.780   0.778   0.741   0.688   0.720   0.699   0.692   0.707   0.684   0.702   0.726   0.708   0.659   0.682   0.726   0.728   0.715   0.726   0.729   0.739   0.748   0.788   0.818   0.797   0.794   0.800   0.797   0.772   0.804   0.800
    81.49    0.778   0.785   0.770   0.699   0.707   0.725   0.665   0.675   0.718   0.726   0.741   0.706   0.675   0.670   0.725   0.721   0.713   0.725   0.725   0.733   0.758   0.760   0.780   0.802   0.771   0.785   0.803   0.765   0.764   0.812
    73.91    0.758   0.765   0.731   0.732   0.752   0.745   0.701   0.708   0.715   0.720   0.755   0.757   0.736   0.706   0.724   0.736   0.746   0.773   0.738   0.732   0.732   0.755   0.795   0.796   0.756   0.767   0.793   0.750   0.754   0.790
    66.32    0.744   0.761   0.736   0.747   0.723   0.752   0.713   0.726   0.744   0.724   0.759   0.776   0.782   0.736   0.745   0.740   0.763   0.774   0.790   0.777   0.753   0.779   0.762   0.759   0.724   0.755   0.760   0.745   0.778   0.775
    58.73    0.734   0.730   0.739   0.722   0.714   0.722   0.746   0.710   0.722   0.701   0.717   0.755   0.741   0.785   0.768   0.759   0.789   0.803   0.765   0.765   0.762   0.738   0.726   0.743   0.717   0.747   0.751   0.761   0.752   0.754
    51.15    0.717   0.719   0.727   0.755   0.741   0.708   0.739   0.690   0.696   0.677   0.696   0.733   0.738   0.781   0.812   0.769   0.758   0.750   0.740   0.750   0.766   0.731   0.708   0.711   0.730   0.723   0.751   0.780   0.795   0.758
    43.56    0.740   0.735   0.751   0.752   0.772   0.747   0.716   0.710   0.709   0.698   0.699   0.730   0.760   0.758   0.771   0.756   0.713   0.743   0.754   0.736   0.768   0.758   0.730   0.743   0.719   0.730   0.765   0.806   0.771   0.770
    35.97    0.737   0.769   0.770   0.801   0.758   0.744   0.744   0.715   0.702   0.722   0.747   0.767   0.754   0.717   0.742   0.768   0.752   0.748   0.776   0.765   0.737   0.727   0.752   0.747   0.750   0.726   0.774   0.791   0.794   0.759
    28.39    0.777   0.769   0.758   0.789   0.777   0.769   0.807   0.752   0.749   0.738   0.768   0.762   0.737   0.727   0.742   0.766   0.769   0.753   0.781   0.760   0.729   0.742   0.743   0.775   0.759   0.779   0.777   0.783   0.821   0.783
    20.80    0.762   0.757   0.748   0.721   0.762   0.773   0.766   0.773   0.757   0.748   0.768   0.759   0.733   0.725   0.742   0.780   0.774   0.784   0.777   0.727   0.729   0.750   0.761   0.782   0.765   0.789   0.795   0.769   0.774   0.761
    13.22    0.757   0.764   0.754   0.762   0.758   0.779   0.800   0.780   0.757   0.749   0.760   0.742   0.735   0.743   0.758   0.780   0.783   0.805   0.766   0.755   0.771   0.760   0.780   0.752   0.777   0.779   0.766   0.795   0.805   0.767
     5.63    0.793   0.788   0.773   0.788   0.805   0.792   0.794   0.779   0.788   0.778   0.780   0.780   0.780   0.785   0.797   0.792   0.807   0.806   0.794   0.782   0.783   0.786   0.783   0.787   0.781   0.776   0.787   0.789   0.807   0.803

   Height   Standard deviation at grid points for the w component:
   225.63    0.651   0.622   0.621   0.594   0.576   0.604   0.654   0.612   0.610   0.625   0.606   0.623   0.608   0.611   0.598   0.638   0.640   0.646   0.661   0.692   0.705   0.709   0.691   0.679   0.677   0.644   0.645   0.645   0.608   0.602
   218.04    0.632   0.620   0.592   0.582   0.613   0.615   0.632   0.619   0.622   0.654   0.616   0.645   0.625   0.616   0.613   0.641   0.634   0.647   0.684   0.688   0.679   0.677   0.679   0.640   0.652   0.621   0.629   0.614   0.597   0.586
   210.46    0.597   0.624   0.599   0.588   0.592   0.614   0.639   0.636   0.633   0.633   0.644   0.654   0.619   0.641   0.653   0.618   0.640   0.665   0.643   0.671   0.643   0.659   0.646   0.680   0.680   0.642   0.636   0.611   0.596   0.599
   202.87    0.624   0.625   0.628   0.592   0.620   0.641   0.648   0.669   0.649   0.635   0.651   0.643   0.639   0.631   0.647   0.663   0.663   0.681   0.669   0.642   0.638   0.632   0.632   0.642   0.656   0.657   0.624   0.626   0.623   0.603
   195.29    0.596   0.611   0.608   0.586   0.599   0.624   0.612   0.650   0.677   0.658   0.663   0.655   0.667   0.655   0.661   0.676   0.696   0.655   0.681   0.662   0.674   0.637   0.613   0.642   0.656   0.658   0.625   0.621   0.620   0.628
   187.70    0.611   0.620   0.616   0.575   0.582   0.622   0.622   0.626   0.634   0.662   0.670   0.685   0.719   0.709   0.715   0.686   0.708   0.658   0.645   0.686   0.667   0.654   0.638   0.649   0.629   0.646   0.620   0.595   0.607   0.604
   180.11    0.635   0.617   0.599   0.595   0.591   0.583   0.600   0.606   0.649   0.660   0.672   0.667   0.697   0.723   0.714   0.696   0.701   0.678   0.659   0.669   0.657   0.658   0.659   0.643   0.609   0.614   0.605   0.602   0.590   0.598
   172.53    0.661   0.601   0.632   0.589   0.617   0.609   0.607   0.590   0.629   0.655   0.673   0.670   0.670   0.665   0.677   0.697   0.676   0.691   0.679   0.671   0.628   0.638   0.636   0.607   0.592   0.620   0.599   0.599   0.582   0.582
   164.94    0.633   0.607   0.620   0.610   0.593   0.577   0.592   0.593   0.599   0.627   0.627   0.651   0.653   0.648   0.647   0.664   0.672   0.698   0.697   0.686   0.667   0.612   0.597   0.600   0.606   0.627   0.600   0.574   0.580   0.584
   157.35    0.596   0.604   0.591   0.577   0.603   0.604   0.614   0.623   0.593   0.602   0.610   0.634   0.634   0.654   0.662   0.661   0.690   0.676   0.666   0.671   0.633   0.607   0.609   0.627   0.634   0.595   0.598   0.579   0.592   0.604
   149.77    0.583   0.565   0.568   0.564   0.598   0.627   0.622   0.632   0.611   0.618   0.621   0.631   0.616   0.656   0.678   0.679   0.657   0.664   0.655   0.636   0.620   0.611   0.638   0.654   0.642   0.601   0.604   0.612   0.601   0.585
   142.18    0.576   0.571   0.584   0.566   0.596   0.641   0.635   0.663   0.664   0.624   0.637   0.655   0.650   0.680   0.659   0.671   0.636   0.638   0.651   0.645   0.632   0.620   0.620   0.623   0.593   0.599   0.615   0.589   0.573   0.568
   134.60    0.589   0.570   0.587   0.595   0.611   0.672   0.675   0.665   0.641   0.636   0.652   0.653   0.663   0.668   0.657   0.647   0.619   0.616   0.627   0.623   0.621   0.644   0.625   0.601   0.597   0.624   0.604   0.578   0.565   0.589
   127.01    0.603   0.622   0.611   0.622   0.657   0.656   0.679   0.641   0.656   0.660   0.668   0.675   0.663   0.674   0.632   0.614   0.628   0.620   0.579   0.579   0.629   0.617   0.604   0.605   0.610   0.607   0.574   0.561   0.584   0.592
   119.42    0.595   0.613   0.645   0.631   0.647   0.652   0.655   0.634   0.638   0.638   0.670   0.691   0.638   0.657   0.624   0.628   0.611   0.606   0.588   0.616   0.611   0.615   0.615   0.595   0.610   0.588   0.600   0.595   0.588   0.604
   111.84    0.582   0.597   0.636   0.614   0.638   0.634   0.612   0.628   0.637   0.645   0.655   0.632   0.634   0.651   0.637   0.609   0.603   0.633   0.641   0.609   0.626   0.634   0.606   0.605   0.600   0.578   0.576   0.621   0.588   0.589
   104.25    0.568   0.570   0.603   0.594   0.627   0.619   0.613   0.608   0.608   0.620   0.609   0.607   0.624   0.621   0.607   0.599   0.611   0.607   0.638   0.623   0.618   0.649   0.627   0.621   0.580   0.594   0.598   0.590   0.598   0.616
    96.66    0.572   0.564   0.576   0.606   0.619   0.624   0.607   0.617   0.594   0.601   0.583   0.570   0.616   0.623   0.616   0.591   0.574   0.607   0.616   0.613   0.639   0.629   0.601   0.585   0.586   0.605   0.601   0.623   0.593   0.590
    89.08    0.591   0.593   0.599   0.619   0.601   0.601   0.588   0.596   0.573   0.590   0.565   0.562   0.600   0.607   0.626   0.602   0.609   0.605   0.595   0.613   0.623   0.609   0.619   0.599   0.570   0.618   0.615   0.620   0.620   0.609
    81.49    0.612   0.617   0.613   0.653   0.616   0.603   0.612   0.590   0.592   0.588   0.577   0.595   0.598   0.607   0.617   0.630   0.628   0.590   0.579   0.586   0.600   0.609   0.603   0.615   0.603   0.646   0.630   0.631   0.639   0.644
    73.91    0.655   0.640   0.640   0.668   0.642   0.636   0.637   0.637   0.591   0.599   0.605   0.630   0.625   0.590   0.603   0.609   0.615   0.611   0.597   0.582   0.594   0.601   0.593   0.590   0.603   0.629   0.637   0.638   0.636   0.623
    66.32    0.622   0.645   0.634   0.658   0.629   0.625   0.628   0.642   0.590   0.592   0.618   0.615   0.617   0.607   0.608   0.612   0.619   0.593   0.593   0.620   0.616   0.597   0.563   0.591   0.595   0.626   0.629   0.626   0.612   0.619
    58.73    0.639   0.629   0.628   0.651   0.675   0.659   0.630   0.617   0.636   0.596   0.602   0.608   0.593   0.607   0.605   0.602   0.618   0.616   0.608   0.595   0.604   0.605   0.584   0.624   0.583   0.605   0.618   0.628   0.605   0.596
    51.15    0.644   0.639   0.655   0.658   0.656   0.632   0.649   0.614   0.645   0.603   0.602   0.627   0.615   0.623   0.607   0.602   0.606   0.621   0.611   0.597   0.623   0.605   0.614   0.633   0.621   0.599   0.604   0.619   0.627   0.612
    43.56    0.632   0.656   0.644   0.657   0.646   0.659   0.647   0.621   0.646   0.626   0.611   0.633   0.608   0.593   0.609   0.598   0.597   0.611   0.607   0.602   0.602   0.629   0.619   0.615   0.617   0.619   0.585   0.613   0.626   0.621
    35.97    0.645   0.662   0.633   0.663   0.623   0.649   0.641   0.625   0.642   0.628   0.618   0.625   0.614   0.610   0.612   0.623   0.599   0.597   0.616   0.628   0.607   0.611   0.627   0.619   0.643   0.622   0.619   0.627   0.640   0.609
    28.39    0.630   0.656   0.652   0.644   0.639   0.653   0.628   0.629   0.642   0.636   0.636   0.642   0.607   0.622   0.620   0.622   0.600   0.617   0.618   0.640   0.612   0.623   0.620   0.631   0.625   0.610   0.636   0.630   0.602   0.616
    20.80    0.637   0.637   0.652   0.634   0.621   0.633   0.621   0.634   0.635   0.628   0.632   0.635   0.621   0.613   0.621   0.616   0.627   0.629   0.622   0.628   0.619   0.619   0.643   0.647   0.628   0.605   0.617   0.617   0.647   0.620
    13.22    0.632   0.647   0.623   0.631   0.629   0.618   0.633   0.623   0.643   0.621   0.624   0.619   0.639   0.627   0.615   0.631   0.625   0.635   0.624   0.646   0.613   0.622   0.634   0.632   0.633   0.624   0.625   0.629   0.634   0.627
     5.63    0.643   0.635   0.641   0.638   0.638   0.627   0.631   0.623   0.632   0.634   0.630   0.638   0.635   0.628   0.623   0.622   0.630   0.627   0.627   0.628   0.620   0.636   0.639   0.636   0.636   0.628   0.645   0.640   0.621   0.627

   Mean standard deviation across all grid points:
      u component:    0.956 m/s
      v component:    0.738 m/s
      w component:    0.625 m/s


U-component (X) statistics from the interpolated hub point:

   Mean =   9.9991 m/s
   TI   =   8.3658 %


Processing complete.  193.81 CPU seconds used.
